37
	Energy:      68.9447909
C          0.29090        0.95897       -0.54246
C         -0.28355        2.05412       -0.02284
C          0.08197        3.46365       -0.36563
O         -0.43412        4.37765        0.25775
C          1.06175        3.81740       -1.45256
C         -1.23840        1.66944        1.08338
C         -1.54407        0.22488        0.64084
C         -0.21592       -0.29936        0.09419
C         -2.59783        2.40549        1.16288
C         -2.38379       -0.56736        1.66676
C         -2.59664       -2.01049        1.17711
C         -3.74442        0.20015        1.83932
C         -3.52633        1.70173        2.18248
C         -4.64974       -0.43357        2.90729
C         -0.44729        1.78855        2.41790
H          1.08705        0.95929       -1.27004
H          1.47703        2.94312       -1.98378
H          1.90719        4.38652       -1.01239
H          0.55443        4.45658       -2.20528
H         -2.17820        0.29258       -0.28291
H          0.49734       -0.62101        0.88247
H         -0.40047       -1.11978       -0.63231
H         -3.09220        2.39290        0.16607
H         -2.46138        3.46681        1.45773
H         -1.83857       -0.61785        2.63269
H         -3.14361       -2.02201        0.21009
H         -3.15997       -2.60898        1.91988
H         -1.61820       -2.51687        1.04018
H         -4.28652        0.16603        0.86694
H         -4.50571        2.22790        2.19471
H         -3.10600        1.79410        3.20376
H         -4.14475       -0.42929        3.89686
H         -4.92245       -1.47442        2.64413
H         -5.59919        0.13751        2.98906
H          0.51908        1.24355        2.36695
H         -0.98850        1.38156        3.29108
H         -0.22131        2.85538        2.62949
