34
	Energy:      66.4044266
C          0.20344        1.05486       -0.25051
C         -0.64189        2.07802       -0.19001
C         -0.18015        3.46494        0.04200
O         -0.96025        4.40135        0.00219
C         -2.04394        1.64342       -0.54973
C         -1.94714        0.11613       -0.22577
C         -0.48733       -0.21039       -0.63820
C         -3.22074        2.32011        0.19397
C         -2.10010       -0.18639        1.32137
C         -2.16763       -1.71481        1.55795
C         -3.34317        0.52477        1.93127
C         -3.22871        2.03741        1.68710
C         -3.48920        0.29198        3.44746
C         -2.24453        1.90200       -2.06351
H          1.27555        1.15210       -0.13451
H         -2.73133       -0.47077       -0.75383
H         -0.05756       -1.11019       -0.16210
H         -0.37608       -0.32471       -1.73684
H         -4.17979        1.93591       -0.22161
H         -3.21515        3.41642        0.02394
H         -1.21237        0.21091        1.86418
H         -3.07507       -2.13922        1.07788
H         -2.18338       -1.96018        2.63710
H         -1.28688       -2.24794        1.15642
H         -4.26799        0.14686        1.43931
H         -4.10839        2.55611        2.12838
H         -2.30985        2.44761        2.16192
H         -2.58153        0.63646        3.98812
H         -3.67430       -0.77369        3.68467
H         -4.36675        0.85237        3.83535
H         -1.44503        1.44486       -2.68207
H         -2.24365        2.99366       -2.27280
H         -3.21526        1.48178       -2.40381
H          0.86915        3.65756        0.24240
