33
	Energy:      66.0837110
C          0.15108        1.13333       -0.25716
C         -0.74810        2.10523       -0.18050
C         -0.39223        3.49385       -0.00999
N         -0.11221        4.60809        0.12896
C         -2.11434        1.61323       -0.55781
C         -1.96151        0.09558       -0.22457
C         -0.48195       -0.17186       -0.62298
C         -3.29989        2.27245        0.17948
C         -2.11297       -0.20223        1.32358
C         -2.15269       -1.73103        1.56398
C         -3.36706        0.48935        1.93579
C         -3.28899        2.00194        1.67566
C         -3.48888        0.27121        3.45671
C         -2.30809        1.85938       -2.07547
H          1.21795        1.29370       -0.16682
H         -2.71892       -0.52401       -0.75460
H         -0.02422       -1.03983       -0.11346
H         -0.35131       -0.30711       -1.71716
H         -4.25456        1.87092       -0.22981
H         -3.29315        3.37025        0.00235
H         -1.23221        0.21402        1.86350
H         -3.05535       -2.17183        1.08910
H         -2.16154       -1.97521        2.64362
H         -1.26489       -2.24817        1.15570
H         -4.28851        0.08756        1.45708
H         -4.17290        2.50850        2.12175
H         -2.37330        2.43369        2.13775
H         -2.58063        0.63958        3.98105
H         -3.64875       -0.79487        3.70933
H         -4.37074        0.82026        3.85086
H         -1.48878        1.42251       -2.68324
H         -2.33358        2.95011       -2.28970
H         -3.26319        1.41204       -2.42457
