34
	Energy:      65.1811284
C          0.28132        0.97738       -0.53990
C         -0.29716        2.05683       -0.00980
C          0.09819        3.43404       -0.37180
O         -0.39824        4.39344        0.19511
C         -1.24796        1.67182        1.09313
C         -1.54753        0.22736        0.64443
C         -0.21675       -0.28955        0.08822
C         -2.60598        2.40694        1.17161
C         -2.38497       -0.56884        1.66859
C         -2.59491       -2.01094        1.17517
C         -3.74740        0.19651        1.84340
C         -3.53347        1.69887        2.18945
C         -4.65125       -0.44151        2.90995
C         -0.45625        1.79011        2.42714
H          1.07827        1.02093       -1.27141
H         -2.18401        0.29636       -0.27772
H          0.50061       -0.61310        0.87200
H         -0.40066       -1.10542       -0.64350
H         -3.09986        2.39475        0.17456
H         -2.46625        3.46873        1.46511
H         -1.83911       -0.62062        2.63411
H         -3.14243       -2.02108        0.20845
H         -3.15654       -2.61259        1.91671
H         -1.61522       -2.51440        1.03613
H         -4.28959        0.16311        0.87105
H         -4.51411        2.22263        2.20226
H         -3.11400        1.79037        3.21113
H         -4.14633       -0.43801        3.89953
H         -4.92135       -1.48249        2.64458
H         -5.60207        0.12716        2.99276
H          0.51045        1.24563        2.37490
H         -0.99650        1.38136        3.30013
H         -0.23131        2.85718        2.63923
H          0.83984        3.59877       -1.14701
