33
	Energy:      64.2082668
C          0.24724        1.04323       -0.51230
C         -0.36104        2.09110        0.04231
C         -0.01381        3.46317       -0.24065
N          0.25591        4.56715       -0.45836
C         -1.29735        1.66454        1.12817
C         -1.56996        0.22420        0.65498
C         -0.22790       -0.25234        0.08272
C         -2.65943        2.38467        1.20298
C         -2.39632       -0.59342        1.67287
C         -2.58738       -2.03496        1.17184
C         -3.76991        0.15428        1.85536
C         -3.57972        1.65861        2.21102
C         -4.66397       -0.49821        2.92069
C         -0.50911        1.77667        2.46557
H          1.05004        1.12795       -1.23361
H         -2.20848        0.29443       -0.26547
H          0.49822       -0.58293        0.85530
H         -0.39675       -1.05309       -0.66949
H         -3.14857        2.37164        0.20319
H         -2.52449        3.44767        1.49684
H         -1.84924       -0.64610        2.63745
H         -3.13646       -2.04843        0.20629
H         -3.14065       -2.64658        1.91209
H         -1.60078       -2.52403        1.02958
H         -4.31221        0.11837        0.88313
H         -4.56721        2.16913        2.22263
H         -3.16387        1.75152        3.23388
H         -4.15796       -0.48853        3.90976
H         -4.92096       -1.54187        2.65398
H         -5.62128        0.05954        3.00571
H          0.46485        1.24516        2.40711
H         -1.04414        1.35110        3.33383
H         -0.29770        2.84425        2.68922
